/*--------------------------------*- C++ -*----------------------------------*\
| =========                 |                                                 |
| \\      /  F ield         | OpenFOAM: The Open Source CFD Toolbox           |
|  \\    /   O peration     | Version:  6                                     |
|   \\  /    A nd           | Web:      www.OpenFOAM.com                      |
|    \\/     M anipulation  |                                                 |
\*---------------------------------------------------------------------------*/
FoamFile
{
    version     2.0;
    format      ascii;
    class       dictionary;
    object      fvSolution;
}
// * * * * * * * * * * * * * * * * * * * * * * * * * * * * * * * * * * * * * //

solvers
{

    p
    {
        solver           GAMG;
        tolerance        1e-6;
        relTol           0.01;
        smoother         GaussSeidel;
        nPreSweeps       0;
        nPostSweeps      2;
        cacheAgglomeration on;
        agglomerator     faceAreaPair;
        nCellsInCoarsestLevel 100;
        mergeLevels      1;
	    minIter 	2;
    }

    pFinal
    {
        solver          PCG;
        preconditioner  DIC;
        tolerance       1e-06;
        relTol          0;
	minIter		3;
    }


    U
    {
        type            coupled;
        solver          PBiCCCG;
        preconditioner  DILU;
        tolerance       (1e-08 1e-08 1e-08);
        relTol          (0 0 0);
    }

    UFinal
    {

	$U;
        tolerance       (1e-08 1e-08 1e-08);
        relTol          (0 0 0);
    }

    "omega.*"
    {
        solver          PBiCGStab;
        preconditioner  DILU;
        tolerance       1e-08;
        relTol          0;
	minIter		3;
    }

    "k.*"
    {
        solver          PBiCGStab;
        preconditioner  DILU;
        tolerance       1e-08;
        relTol          0;
	minIter		3;
    }

    yPsi
    {
        solver          PCG;
        preconditioner  DIC;
        tolerance       1e-06;
        relTol          0;

	minIter 	2;
    }
}

PIMPLE
{
	momentumPredictor yes;
 
    nOuterCorrectors 1;
	nCorrectors 3;
	nNonOrthogonalCorrectors 1;

}

// ************************************************************************* //
